/batch
/config,noeldb,1     ! force off writing results to database
*get,_wallstrt,active,,time,wall
! ANSYS input file written by Workbench version 2021 R1
! File used for geometry attach: C:\Users\gurka\OneDrive\Okul\ME413_Laboratory\Experiment_1\Ansys_final_files\dp0\Geom\DM\Geom.scdoc
/title,Ansys_final--Static Structural (B5)
! ****** Begin Custom Load Command Snippet ******
/COM, ACT Extensions:
/COM,     LSDYNA, 2021.1
/COM,     5f463412-bd3e-484b-87e7-cbc0a665e474, wbex
/COM,
! ****** End   Custom Load Command Snippet ******
*DIM,_wb_ProjectScratch_dir,string,248
_wb_ProjectScratch_dir(1) = 'C:\Users\gurka\OneDrive\Okul\ME413_Laboratory\Experiment_1\_ProjectScratch\Scr810B\'
*DIM,_wb_SolverFiles_dir,string,248
_wb_SolverFiles_dir(1) = 'C:\Users\gurka\OneDrive\Okul\ME413_Laboratory\Experiment_1\Ansys_final_files\dp0\SYS\MECH\'
*DIM,_wb_userfiles_dir,string,248
_wb_userfiles_dir(1) = 'C:\Users\gurka\OneDrive\Okul\ME413_Laboratory\Experiment_1\Ansys_final_files\user_files\'
/com,--- Data in consistent MKS units. See Solving Units in the help system for more information.
/units,MKS
/nopr
/wb,file,start              !  signify a WB generated input file
/prep7
! Turn off shape checking because checks already performed inside WB mesher.
! See help system for more information.
SHPP,OFF,,NOWARN
/nolist
etcon,set             ! allow ANSYS to choose best KEYOP's for 180x elements, resets any applicable keyopt to MAPDL defaults
/com,*********** Nodes for the whole assembly ***********
nblock,3,,10256
(1i9,3e20.9e3)
        1     4.000000000E-03     6.000000000E-01     2.200000000E-02
        2     0.000000000E+00     6.000000000E-01     2.200000000E-02
        3     0.000000000E+00     0.000000000E+00     2.200000000E-02
        4     4.000000000E-03     0.000000000E+00     2.200000000E-02
        5     0.000000000E+00     6.000000000E-01     0.000000000E+00
        6     0.000000000E+00     0.000000000E+00     0.000000000E+00
        7     4.000000000E-03     6.000000000E-01     0.000000000E+00
        8     4.000000000E-03     0.000000000E+00     0.000000000E+00
        9     0.000000000E+00     0.000000000E+00     1.760000000E-02
       10     0.000000000E+00     0.000000000E+00     1.320000000E-02
       11     0.000000000E+00     0.000000000E+00     8.800000000E-03
       12     0.000000000E+00     0.000000000E+00     4.400000000E-03
       13     4.000000000E-03     0.000000000E+00     4.400000000E-03
       14     4.000000000E-03     0.000000000E+00     8.800000000E-03
       15     4.000000000E-03     0.000000000E+00     1.320000000E-02
       16     4.000000000E-03     0.000000000E+00     1.760000000E-02
       17     0.000000000E+00     6.000000000E-01     4.400000000E-03
       18     0.000000000E+00     6.000000000E-01     8.800000000E-03
       19     0.000000000E+00     6.000000000E-01     1.320000000E-02
       20     0.000000000E+00     6.000000000E-01     1.760000000E-02
! ... 9305 like lines cut
/com,*********** Nodes for all Remote Points ***********
nblock,3
(1i9,3e20.9e3)
     9325     2.502161544E-03     6.000000238E-01     1.099999994E-02
     9326     2.000000095E-03     0.000000000E+00     1.099999994E-02
-1
/wb,elem,start            !  set before creation of elements
/com,*********** Elements for Body 1 "Geom\Solid" ***********
et,1,187
eblock,19,solid,,4478
(19i9)
        1        1        1        1        0        0        0        0       10        0        1      363      985      986      367     4526     7631     4527     4525
     4560     4561
        1        1        1        1        0        0        0        0       10        0        2      359      985      986      363     4493     7631     4494     4492
     4526     4527
        1        1        1        1        0        0        0        0       10        0        3      363      986      364      367     4527     4532     4523     4525
     4561     4528
        1        1        1        1        0        0        0        0       10        0        4      363      366      985      367     4524     4552     4526     4525
     4545     4560
        1        1        1        1        0        0        0        0       10        0        5      367      986      982      985     4561     7620     4559     4560
     7631     7619
        1        1        1        1        0        0        0        0       10        0        6      359      989      986      985     4495     7634     4494     4493
     7633     7631
        1        1        1        1        0        0        0        0       10        0        7      359      986      360      363     4494     4501     4490     4492
     4527     4497
        1        1        1        1        0        0        0        0       10        0        8      359      985      363      362     4493     4526     4492     4491
     4521     4517
        1        1        1        1        0        0        0        0       10        0        9      364      986      368      367     4532     4568     4529     4528
     4561     4555
        1        1        1        1        0        0        0        0       10        0       10      360      363      986      364     4497     4527     4501     4498
     4523     4532
! ... 8937 like lines cut
!Material Id = {0FB549ED-60CC-48E6-A276-6409F1AB4AEB}
et,2,186
keyo,2,2,1          ! set full integration on SOLID186
eblock,19,solid,,50
(19i9)
        1        2        1        1        0        0        0        0       20        0     4479       10       15       14       14     1625     1645     1641     1641
     1691     1701       14     1690     9271     9309     1641     9270     1692     1704     1702     1702
        1        2        1        1        0        0        0        0       20        0     4480        6       12        8        8     1613     1614     1633     1633
     1676     1682        8     1675     9227     9232     1633     9229     1677     1698     1684     1684
        1        2        1        1        0        0        0        0       20        0     4481       10       14       11       11     1625     1641     1621     1621
     1690     1695       11     1689     9270     9256     1621     9254     1692     1702     1696     1696
        1        2        1        1        0        0        0        0       20        0     4482       11       14       13       13     1621     1641     1637     1637
     1695     1699       13     1694     9256     9302     1637     9255     1696     1702     1700     1700
        1        2        1        1        0        0        0        0       20        0     4483       11       13       12       12     1621     1637     1614     1614
     1694     1697       12     1693     9255     9233     1614     9231     1696     1700     1698     1698
        1        2        1        1        0        0        0        0       20        0     4484        8       12       13       13     1633     1614     1637     1637
     1682     1697       13     1683     9232     9233     1637     9295     1684     1698     1700     1700
        1        2        1        1        0        0        0        0       20        0     4485        9       15       10       10     1629     1645     1625     1625
     1686     1691       10     1685     9284     9271     1625     9269     1688     1704     1692     1692
        1        2        1        1        0        0        0        0       20        0     4486        9       16       15       15     1629     1649     1645     1645
     1687     1703       15     1686     9285     9316     1645     9284     1688     1705     1704     1704
        1        2        1        1        0        0        0        0       20        0     4487        3       16        9        9     1605     1649     1629     1629
     1665     1687        9     1664     9208     9285     1629     9207     1666     1705     1688     1688
        1        2        1        1        0        0        0        0       20        0     4488        3        4       16       16     1605     1606     1649     1649
     1663     1667       16     1665     9205     9210     1649     9208     1666     1668     1705     1705
! ... 81 like lines cut
!Material Id = {0FB549ED-60CC-48E6-A276-6409F1AB4AEB}
/wb,elem,end               !  done creating elements
/com,*********** Send User Defined Coordinate System(s) ***********
csys,0
toffst,273.15,  ! Temperature offset from absolute zero
/com,*********** Set Reference Temperature ***********
tref,22.
/wb,mat,start              !  starting to send materials
/com,*********** Send Materials ***********
MP,EX,1,70000000000,	! Pa
MP,NUXY,1,0.346153846153846,

/wb,mat,end                !  done sending materials
!************************* Model Summary ********************
!Geom\Solid,	Aluminum 2000,	matid,	1
!************************* End Model Summary ********************
! get the diagonal of the bounding box. Needed later for other things
*get,_xmin,node,,mnloc,x
*get,_ymin,node,,mnloc,y
*get,_zmin,node,,mnloc,z
*get,_xmax,node,,mxloc,x
*get,_ymax,node,,mxloc,y
*get,_zmax,node,,mxloc,z
_ASMDIAG=(_xmax-_xmin)*(_xmax-_xmin)+(_ymax-_ymin)*(_ymax-_ymin)+(_zmax-_zmin)*(_zmax-_zmin)
_ASMDIAG=SQRT(_ASMDIAG)
/wb,contact,start          !  starting to send contact
/wb,contact,end            !  done creating contacts
/golist
/wb,load,start             !  starting to send loads
/com,*********** Fixed Supports ***********
CMBLOCK,_FIXEDSU,NODE,       33
(8i10)
         1         2         5         7        17        18        19        20
        21        22        23        24      1653      1654      1655      1659
      1669      1670      1671      1678      1706      1707      1708      1714
      1715      1716      1722      1723      1724      1730      1735      1741
      1746
cmsel,s,_FIXEDSU
d,all,all
nsel,all
/com,*********** Create Remote Point "Internal Remote Point" ***********
! -------- Remote Point Used by "Moment" --------
*set,tid,4
*set,cid,3
et,cid,174
et,tid,170
keyo,tid,2,1               ! Don't fix the pilot node
keyo,tid,4,111111
keyo,cid,12,5              ! Bonded Contact 
keyo,cid,4,1               ! Deformable RBE3 style load
keyo,cid,2,2               ! MPC style contact
eblock,10,,,10
(15i9)
     7467        3        3        3        0        8       12        6        6     1682     1676        6     1675
     7468        3        3        3        0        8       13       12       12     1683     1697       12     1682
     7469        3        3        3        0       13       11       12       12     1694     1693       12     1697
     7470        3        3        3        0       13       14       11       11     1699     1695       11     1694
     7471        3        3        3        0       14       10       11       11     1690     1689       11     1695
     7472        3        3        3        0       14       15       10       10     1701     1691       10     1690
     7473        3        3        3        0       15        9       10       10     1686     1685       10     1691
     7474        3        3        3        0       15       16        9        9     1703     1687        9     1686
     7475        3        3        3        0       16        3        9        9     1665     1664        9     1687
     7476        3        3        3        0       16        4        3        3     1667     1663        3     1665
-1
*set,_npilot,9326
_npilot139=_npilot
type,tid
mat ,cid
real,cid
tshape,pilo
en,7477,_npilot
tshape
/com,*********** Create Remote Point "Remote Point" ***********
*set,tid,6
*set,cid,5
et,cid,174
et,tid,170
keyo,tid,2,1               ! Don't fix the pilot node
keyo,tid,4,111111
keyo,cid,12,5              ! Bonded Contact 
keyo,cid,4,1               ! Deformable RBE3 style load
keyo,cid,2,2               ! MPC style contact
eblock,10,,,10
(15i9)
     7478        5        5        5        0        8       12        6        6     1682     1676        6     1675
     7479        5        5        5        0        8       13       12       12     1683     1697       12     1682
     7480        5        5        5        0       13       11       12       12     1694     1693       12     1697
     7481        5        5        5        0       13       14       11       11     1699     1695       11     1694
     7482        5        5        5        0       14       10       11       11     1690     1689       11     1695
     7483        5        5        5        0       14       15       10       10     1701     1691       10     1690
     7484        5        5        5        0       15        9       10       10     1686     1685       10     1691
     7485        5        5        5        0       15       16        9        9     1703     1687        9     1686
     7486        5        5        5        0       16        3        9        9     1665     1664        9     1687
     7487        5        5        5        0       16        4        3        3     1667     1663        3     1665
-1
*set,_npilot,9325
_npilot43=_npilot
type,tid
mat ,cid
real,cid
tshape,pilo
en,7488,_npilot
tshape
! ****** Begin Command Snippet ******
!   Commands inserted into this file will be executed just after the remote point definition.
!   Constraint equation based contact elements are used to define the remote point.
!   The material, type, and real number for the contact/beam elements are equal to the parameter "cid".
!   The type number for the target(pilot) element is equal to the parameter "tid".
!   The remote point node number is equal to "_npilot"

!   Active UNIT system in Workbench when this object was created:  Metric (m, kg, N, s, V, A)
!   NOTE:  Any data that requires units (such as mass) is assumed to be in the consistent solver unit system.
!                See Solving Units in the help system for more information.


Measure_pilot = _npilot
! ****** End   Command Snippet ******
/com,*********** Construct Moment Using Remote Attachment ***********
/gst,on,on
fini
*get,_numnode,node,0,count
*get,_numelem,elem,0,count
*get, _MAXELEMNUM, elem, 0, NUM, MAX
*get, _MAXNODENUM, node, 0, NUM, MAX
*get, _MAXELEMTYPE, etyp, 0, NUM, MAX
*get, _MAXREALCONST, real, 0, NUM, MAX
/go
/wb,load,end               !  done creating loads
/com,--- Number of total nodes = %_numnode%
/com,--- Number of contact elements = 20
/com,--- Number of spring elements = 0
/com,--- Number of bearing elements = 0
/com,--- Number of solid elements = 4528
/com,--- Number of condensed parts = 0
/com,--- Number of total elements = %_numelem%
*get,_wallbsol,active,,time,wall
/com,****************************************************************************
/com,*************************    SOLUTION       ********************************
/com,****************************************************************************
/solu
antype,0                   ! static analysis
_thickRatio=  0     ! Ratio of thick parts in the model
eqsl,sparse,,,,,1
cntr,print,1               ! print out contact info and also make no initial contact an error
nldiag,cont,iter           ! print out contact info each equilibrium iteration
rescontrol,,none                 ! Do not keep any restart files
/com,****************************************************
/com,******************* SOLVE FOR LS 1 OF 1 ****************
nsel,s,node,,9326
f,all,mx,0.
f,all,my,-5.33664
f,all,mz,0.
nsel,all
/nopr
/gopr
/nolist
nsub,1,1,1
time,1.
outres,erase
outres,all,none
outres,nsol,all,
outres,rsol,all
outres,eangl,all
outres,etmp,all
outres,veng,all
outres,strs,all,
outres,epel,all,
outres,eppl,all,
outres,cont,all,
! *********** WB SOLVE COMMAND ***********
! check interactive state
*get,ANSINTER_,active,,int
*if,ANSINTER_,ne,0,then
/eof
*endif
solve
/com *************** Write FE CONNECTORS ********* 
CEWRITE,file,ce,,INTE
/com,****************************************************
/com,*************** FINISHED SOLVE FOR LS 1 *************
*get,_wallasol,active,,time,wall
/nopr
*get,_numnode,node,0,count
*get,_numelem,elem,0,count
*get, _MAXELEMNUM, elem, 0, NUM, MAX
*get, _MAXNODENUM, node, 0, NUM, MAX,,,INTERNAL
*get, _MAXELEMTYPE, etyp, 0, NUM, MAX
*get, _MAXREALCONST, real, 0, NUM, MAX
/gopr
/post1
! ****** Begin Command Snippet ******
!   Commands inserted into this file will be executed immediately after the ANSYS /POST1 command.

!   Active UNIT system in Workbench when this object was created:  Metric (m, kg, N, s, V, A)
!   NOTE:  Any data that requires units (such as mass) is assumed to be in the consistent solver unit system.
!                See Solving Units in the help system for more information.


my_roty=ROTY(Measure_pilot)
! ****** End   Command Snippet ******
xmlo,ENCODING,ISO-8859-1
xmlo,parm
/xml,parm,xml
fini
/gopr
*get,_walldone,active,,time,wall
_preptime=(_wallbsol-_wallstrt)*3600
_solvtime=(_wallasol-_wallbsol)*3600
_posttime=(_walldone-_wallasol)*3600
_totaltim=(_walldone-_wallstrt)*3600
*get,_dlbratio,active,0,solu,dlbr
*get,_combtime,active,0,solu,comb
/com,--- Total number of nodes = %_numnode%
/com,--- Total number of elements = %_numelem%
/com,--- Element load balance ratio = %_dlbratio%
/com,--- Time to combine distributed files = %_combtime%
/wb,file,end               ! done with WB generated input
