/batch
/config,noeldb,1     ! force off writing results to database
*get,_wallstrt,active,,time,wall
! ANSYS input file written by Workbench version 2021 R1
! File used for geometry attach: C:\Users\gurka\OneDrive\Okul\ME413_Laboratory\Experiment_1\ANSYS__files\dp0\Geom\DM\Geom.scdoc
/title,ANSYS_--Static Structural (C5)
! ****** Begin Custom Load Command Snippet ******
/COM, ACT Extensions:
/COM,     LSDYNA, 2021.1
/COM,     5f463412-bd3e-484b-87e7-cbc0a665e474, wbex
/COM,
! ****** End   Custom Load Command Snippet ******
*DIM,_wb_ProjectScratch_dir,string,248
_wb_ProjectScratch_dir(1) = 'C:\Users\gurka\OneDrive\Okul\ME413_Laboratory\Experiment_1\_ProjectScratch\Scr817F\'
*DIM,_wb_SolverFiles_dir,string,248
_wb_SolverFiles_dir(1) = 'C:\Users\gurka\OneDrive\Okul\ME413_Laboratory\Experiment_1\ANSYS__files\dp0\SYS-1\MECH\'
*DIM,_wb_userfiles_dir,string,248
_wb_userfiles_dir(1) = 'C:\Users\gurka\OneDrive\Okul\ME413_Laboratory\Experiment_1\ANSYS__files\user_files\'
/com,--- Data in consistent MKS units. See Solving Units in the help system for more information.
/units,MKS
/nopr
/wb,file,start              !  signify a WB generated input file
/prep7
! Turn off shape checking because checks already performed inside WB mesher.
! See help system for more information.
SHPP,OFF,,NOWARN
/nolist
etcon,set             ! allow ANSYS to choose best KEYOP's for 180x elements, resets any applicable keyopt to MAPDL defaults
/com,*********** Nodes for the whole assembly ***********
nblock,3,,6161
(1i9,3e20.9e3)
        1     2.502161572E-03     5.967532468E-01     2.500000000E-03
        2     2.502161572E-03     5.967532468E-01     1.950000000E-02
        3     2.502161572E-03     3.246753247E-03     2.500000000E-03
        4     2.502161572E-03     3.246753247E-03     1.950000000E-02
        5     5.004323145E-03     1.615373298E-02     5.369047619E-03
        6     5.004323145E-03     1.614382921E-02     1.663095238E-02
        7     5.004323145E-03     2.428592389E-02     1.652182540E-02
        8     5.004323145E-03     2.428926767E-02     5.478174603E-03
        9     5.004323145E-03     1.535714286E-01     5.500000000E-03
       10     5.004323145E-03     1.464285714E-01     5.500000000E-03
       11     5.004323145E-03     1.464285714E-01     1.650000000E-02
       12     5.004323145E-03     1.535714286E-01     1.650000000E-02
       13     5.004323145E-03     2.107142857E-01     5.500000000E-03
       14     5.004323145E-03     2.035714286E-01     5.500000000E-03
       15     5.004323145E-03     2.035714286E-01     1.650000000E-02
       16     5.004323145E-03     2.107142857E-01     1.650000000E-02
       17     0.000000000E+00     5.178571429E-01     1.650000000E-02
       18     0.000000000E+00     5.178571429E-01     5.500000000E-03
       19     0.000000000E+00     5.250000000E-01     5.500000000E-03
       20     0.000000000E+00     5.250000000E-01     1.650000000E-02
! ... 5582 like lines cut
/com,*********** Nodes for all Remote Points ***********
nblock,3
(1i9,3e20.9e3)
     5602     2.502161544E-03     0.000000000E+00     1.099999994E-02
-1
/wb,elem,start            !  set before creation of elements
/com,*********** Elements for Body 1 "Geom\Solid" ***********
et,1,187
eblock,19,solid,,2542
(19i9)
        1        1        1        1        0        0        0        0       10        0        1      134      835      120      627     3920     2405     2404     1023
     2407     3400
        1        1        1        1        0        0        0        0       10        0        2      129      134      120      627     2399     2404     3401     3399
     1023     3400
        1        1        1        1        0        0        0        0       10        0        3      835      134      730      627     3920     3924     3923     2407
     1023     1025
        1        1        1        1        0        0        0        0       10        0        4      134      129      730      627     2399     2392     3924     1023
     3399     1025
        1        1        1        1        0        0        0        0       10        0        5      133      130      119      627     2406     3390     1108     1024
     3392     3391
        1        1        1        1        0        0        0        0       10        0        6      835      133      119      627     3927     1108     1109     2407
     1024     3391
        1        1        1        1        0        0        0        0       10        0        7      130      133      730      627     2406     3933     1026     3392
     1024     1025
        1        1        1        1        0        0        0        0       10        0        8      133      835      730      627     3927     3923     3933     1024
     2407     1025
        1        1        1        1        0        0        0        0       10        0        9      627      622      129      730     3395     3405     3399     1025
     2394     2392
        1        1        1        1        0        0        0        0       10        0       10      622      627      130      730     3395     3392     3396     2394
     1025     1026
! ... 5065 like lines cut
!Material Id = {BA1152A2-F11E-4D94-8283-7EFE8DA7BA76}
/wb,elem,end               !  done creating elements
/com,*********** Send User Defined Coordinate System(s) ***********
csys,0
toffst,273.15,  ! Temperature offset from absolute zero
/com,*********** Set Reference Temperature ***********
tref,22.
/wb,mat,start              !  starting to send materials
/com,*********** Send Materials ***********
Temperature = 'TEMP' ! Temperature
MP,DENS,1,7850,	! kg m^-3
MP,ALPX,1,1.2e-05,	! C^-1
MP,C,1,434,	! J kg^-1 C^-1
MP,KXX,1,60.5,	! W m^-1 C^-1
MP,RSVX,1,1.7e-07,	! kg m^3 A^-2 s^-3
MP,EX,1,200000000000,	! Pa
MP,NUXY,1,0.3,
MP,MURX,1,10000,

/wb,mat,end                !  done sending materials
!************************* Model Summary ********************
!Geom\Solid,	Structural Steel,	matid,	1
!************************* End Model Summary ********************
! get the diagonal of the bounding box. Needed later for other things
*get,_xmin,node,,mnloc,x
*get,_ymin,node,,mnloc,y
*get,_zmin,node,,mnloc,z
*get,_xmax,node,,mxloc,x
*get,_ymax,node,,mxloc,y
*get,_zmax,node,,mxloc,z
_ASMDIAG=(_xmax-_xmin)*(_xmax-_xmin)+(_ymax-_ymin)*(_ymax-_ymin)+(_zmax-_zmin)*(_zmax-_zmin)
_ASMDIAG=SQRT(_ASMDIAG)
/wb,contact,start          !  starting to send contact
/wb,contact,end            !  done creating contacts
/golist
/wb,load,start             !  starting to send loads
/com,*********** Fixed Supports ***********
CMBLOCK,_FIXEDSU,NODE,       45
(8i10)
       430       436       533       619       621       726       956       959
       960       962       963       995      1006      1021      1022      1096
      1097      1457      1459      5375      5376      5377      5378      5379
      5380      5381      5390      5391      5392      5393      5394      5395
      5396      5407      5408      5414      5415      5416      5417      5418
      5475      5476      5477      5478      5479
cmsel,s,_FIXEDSU
d,all,all
nsel,all
/com,*********** Create Remote Point "Internal Remote Point" ***********
! -------- Remote Point Used by "Moment" --------
*set,tid,3
*set,cid,2
et,cid,174
et,tid,170
keyo,tid,2,1               ! Don't fix the pilot node
keyo,tid,4,111111
keyo,cid,12,5              ! Bonded Contact 
keyo,cid,4,1               ! Deformable RBE3 style load
keyo,cid,2,2               ! MPC style contact
eblock,10,,,16
(15i9)
     4576        2        2        2        0      488      953      951      951     5421     5419      951     5420
     4577        2        2        2        0      981      953      488      488     5424     5421      488     5423
     4578        2        2        2        0      955      724      951      951     5440     5438      951     5439
     4579        2        2        2        0     1005      724      955      955     5441     5440      955     5435
     4580        2        2        2        0      617      488      614      614     5460     5458      614     5459
     4581        2        2        2        0      433      614      488      488     5452     5458      488     5422
     4582        2        2        2        0      617      830      829      829     5469     5467      829     5468
     4583        2        2        2        0     1016      829      830      830     5463     5467      830     5471
     4584        2        2        2        0      951      953      955      955     5419     1455      955     5439
     4585        2        2        2        0      955      953     1020     1020     1455     5425     1020     5436
     4586        2        2        2        0      617      614      830      830     5459     1453      830     5469
     4587        2        2        2        0      830      614      994      994     1453     5451      994     5470
     4588        2        2        2        0      981      488      829      829     5423     1112      829     5466
     4589        2        2        2        0      829      488      617      617     1112     5460      617     5468
     4590        2        2        2        0      433      488      724      724     5422     1110      724     5442
     4591        2        2        2        0      724      488      951      951     1110     5420      951     5438
-1
*set,_npilot,5602
_npilot37=_npilot
type,tid
mat ,cid
real,cid
tshape,pilo
en,4592,_npilot
tshape
/com,*********** Construct Moment Using Remote Attachment ***********
/gst,on,on
fini
*get,_numnode,node,0,count
*get,_numelem,elem,0,count
*get, _MAXELEMNUM, elem, 0, NUM, MAX
*get, _MAXNODENUM, node, 0, NUM, MAX
*get, _MAXELEMTYPE, etyp, 0, NUM, MAX
*get, _MAXREALCONST, real, 0, NUM, MAX
/go
/wb,load,end               !  done creating loads
/com,--- Number of total nodes = %_numnode%
/com,--- Number of contact elements = 16
/com,--- Number of spring elements = 0
/com,--- Number of bearing elements = 0
/com,--- Number of solid elements = 2542
/com,--- Number of condensed parts = 0
/com,--- Number of total elements = %_numelem%
*get,_wallbsol,active,,time,wall
/com,****************************************************************************
/com,*************************    SOLUTION       ********************************
/com,****************************************************************************
/solu
antype,0                   ! static analysis
_thickRatio=  1     ! Ratio of thick parts in the model
eqsl,pcg,1e-8,,,,,,1
cntr,print,1               ! print out contact info and also make no initial contact an error
nldiag,cont,iter           ! print out contact info each equilibrium iteration
rescontrol,,none                 ! Do not keep any restart files
/com,****************************************************
/com,******************* SOLVE FOR LS 1 OF 1 ****************
nsel,s,node,,5602
f,all,mx,0.
f,all,my,-6.2784
f,all,mz,0.
nsel,all
/nopr
/gopr
/nolist
nsub,1,1,1
time,1.
outres,erase
outres,all,none
outres,nsol,all,
outres,rsol,all
outres,eangl,all
outres,etmp,all
outres,veng,all
outres,strs,all,
outres,epel,all,
outres,eppl,all,
outres,cont,all,
! *********** WB SOLVE COMMAND ***********
! check interactive state
*get,ANSINTER_,active,,int
*if,ANSINTER_,ne,0,then
/eof
*endif
solve
/com *************** Write FE CONNECTORS ********* 
CEWRITE,file,ce,,INTE
/com,****************************************************
/com,*************** FINISHED SOLVE FOR LS 1 *************
*get,_wallasol,active,,time,wall
/nopr
*get,_numnode,node,0,count
*get,_numelem,elem,0,count
*get, _MAXELEMNUM, elem, 0, NUM, MAX
*get, _MAXNODENUM, node, 0, NUM, MAX,,,INTERNAL
*get, _MAXELEMTYPE, etyp, 0, NUM, MAX
*get, _MAXREALCONST, real, 0, NUM, MAX
/gopr
*get,_PCGITER,active,,solu,cgiter
/post1
xmlo,ENCODING,ISO-8859-1
xmlo,parm
/xml,parm,xml
fini
/gopr
*get,_walldone,active,,time,wall
_preptime=(_wallbsol-_wallstrt)*3600
_solvtime=(_wallasol-_wallbsol)*3600
_posttime=(_walldone-_wallasol)*3600
_totaltim=(_walldone-_wallstrt)*3600
*get,_dlbratio,active,0,solu,dlbr
*get,_combtime,active,0,solu,comb
/com,--- Total number of nodes = %_numnode%
/com,--- Total number of elements = %_numelem%
/com,--- Element load balance ratio = %_dlbratio%
/com,--- Time to combine distributed files = %_combtime%
/wb,file,end               ! done with WB generated input
